Version 4
SHEET 1 2260 1016
WIRE -448 -336 -448 -368
WIRE -112 -272 -256 -272
WIRE 128 -272 -32 -272
WIRE -448 -224 -448 -256
WIRE -352 -112 -352 -144
WIRE -256 -64 -256 -272
WIRE -192 -64 -256 -64
WIRE 96 -64 96 -96
WIRE 96 -64 64 -64
WIRE -352 0 -352 -32
WIRE -352 0 -432 0
WIRE -192 0 -352 0
WIRE 128 0 128 -272
WIRE 128 0 64 0
WIRE 176 0 128 0
WIRE -352 16 -352 0
WIRE -432 32 -432 0
WIRE -192 64 -240 64
WIRE 1648 80 1520 80
WIRE 1840 80 1712 80
WIRE -240 96 -240 64
WIRE -432 128 -432 96
WIRE -352 128 -352 96
WIRE 1520 208 1520 80
WIRE 1632 208 1520 208
WIRE 1840 208 1840 80
WIRE 1840 208 1712 208
WIRE 48 240 -16 240
WIRE 272 240 112 240
WIRE -16 336 -16 240
WIRE 48 336 -16 336
WIRE 272 336 272 240
WIRE 272 336 128 336
WIRE -896 352 -976 352
WIRE -800 352 -832 352
WIRE -656 352 -800 352
WIRE -976 368 -976 352
WIRE 48 368 0 368
WIRE 1616 368 1552 368
WIRE 0 384 0 368
WIRE 48 384 48 368
WIRE 1552 384 1552 368
WIRE 1616 384 1616 368
WIRE 448 400 336 400
WIRE 736 400 512 400
WIRE 816 400 736 400
WIRE 1024 400 880 400
WIRE -656 432 -656 352
WIRE -576 432 -656 432
WIRE -416 432 -416 400
WIRE -416 432 -448 432
WIRE -976 464 -976 448
WIRE -976 464 -1040 464
WIRE -896 464 -976 464
WIRE -736 464 -832 464
WIRE -576 464 -736 464
WIRE -416 464 -448 464
WIRE -304 464 -336 464
WIRE -800 480 -800 352
WIRE -736 480 -736 464
WIRE 112 480 112 448
WIRE 1696 480 1696 464
WIRE -576 496 -656 496
WIRE -304 496 -304 464
WIRE -304 496 -448 496
WIRE 48 496 48 464
WIRE 80 496 48 496
WIRE 1136 496 1136 464
WIRE 1616 496 1616 464
WIRE 1664 496 1616 496
WIRE 272 512 272 336
WIRE 272 512 144 512
WIRE 336 512 336 400
WIRE 336 512 272 512
WIRE 384 512 336 512
WIRE 512 512 464 512
WIRE 608 512 592 512
WIRE 752 512 608 512
WIRE 880 512 832 512
WIRE 1024 512 1024 400
WIRE 1024 512 960 512
WIRE 1104 512 1024 512
WIRE 1840 512 1840 208
WIRE 1840 512 1728 512
WIRE 1904 512 1840 512
WIRE 2176 512 1984 512
WIRE -576 528 -608 528
WIRE -256 528 -448 528
WIRE -176 528 -192 528
WIRE -112 528 -176 528
WIRE -16 528 -16 336
WIRE -16 528 -32 528
WIRE 80 528 -16 528
WIRE 1216 528 1168 528
WIRE 1312 528 1216 528
WIRE 1392 528 1312 528
WIRE 1520 528 1520 208
WIRE 1520 528 1472 528
WIRE 1664 528 1520 528
WIRE 2176 528 2176 512
WIRE -176 544 -176 528
WIRE 736 544 736 400
WIRE 1104 544 1056 544
WIRE -608 560 -608 528
WIRE 1696 560 1696 544
WIRE -800 576 -800 560
WIRE -736 576 -736 560
WIRE -656 576 -656 496
WIRE 112 576 112 544
WIRE 1136 576 1136 560
WIRE 1056 592 1056 544
WIRE 1216 592 1216 528
WIRE 1216 592 1056 592
WIRE 608 608 608 512
WIRE 608 608 576 608
WIRE 656 608 608 608
WIRE 576 640 576 608
WIRE 656 640 656 608
WIRE -176 656 -176 624
WIRE 736 656 736 624
WIRE 1216 736 1056 736
WIRE 576 752 576 704
WIRE 608 752 576 752
WIRE 656 752 656 704
WIRE 656 752 608 752
WIRE 1312 752 1312 528
WIRE 608 784 608 752
WIRE 672 784 608 784
WIRE 736 784 736 736
WIRE 736 784 672 784
WIRE 1136 800 1136 768
WIRE 1216 816 1216 736
WIRE 1216 816 1168 816
WIRE 672 832 672 784
WIRE 1056 832 1056 736
WIRE 1056 832 672 832
WIRE 1104 832 1056 832
WIRE 1312 848 1312 832
WIRE 1312 848 1168 848
WIRE 1312 864 1312 848
WIRE 1136 880 1136 864
WIRE 1312 976 1312 944
FLAG -448 -224 0
FLAG -448 -368 +5V
FLAG -352 128 0
FLAG -352 -144 +5V
FLAG -432 128 0
FLAG -240 96 0
FLAG 96 -96 +5V
FLAG 176 0 V/2
FLAG -416 400 0
FLAG -656 576 V/2
FLAG -608 560 +5V
FLAG -736 576 V/2
FLAG -800 576 V/2
FLAG -176 656 V/2
FLAG 0 384 V/2
FLAG 112 448 0
FLAG 112 576 +5V
FLAG 1312 976 0
FLAG 1136 880 0
FLAG 1136 576 +5V
FLAG 1136 464 0
FLAG 1552 384 V/2
FLAG 1696 464 0
FLAG 1696 560 +5V
FLAG 2176 528 ECG_OUT
FLAG -1040 464 0
FLAG 1136 768 +5V
SYMBOL Opamps\\LTC1152 -64 -32 R0
SYMATTR InstName U1
SYMBOL voltage -448 -352 R0
WINDOW 123 0 0 Left 2
WINDOW 39 24 44 Left 2
SYMATTR InstName V1
SYMATTR Value 5V
SYMBOL res -16 -288 R90
WINDOW 0 0 56 VBottom 2
WINDOW 3 32 56 VTop 2
SYMATTR InstName R1
SYMATTR Value 68K
SYMBOL res -368 -128 R0
SYMATTR InstName R2
SYMATTR Value 100K
SYMBOL res -368 0 R0
SYMATTR InstName R3
SYMATTR Value 100K
SYMBOL cap -448 32 R0
WINDOW 3 -69 69 Left 2
SYMATTR Value 0.47µ
SYMATTR InstName C1
SYMATTR SpiceLine V=10 Irms=1.19 Rser=0.0746214 Lser=0 mfg="KEMET" pn="C0603C474K8RAC" type="X7R"
SYMBOL AutoGenerated\\INA122 -512 480 R0
SYMATTR InstName U2
SYMBOL res -320 448 R90
WINDOW 0 0 56 VBottom 2
WINDOW 3 -27 2 VTop 2
SYMATTR InstName R4
SYMATTR Value 2.7K
SYMBOL cap -832 336 R90
WINDOW 0 0 32 VBottom 2
WINDOW 3 32 32 VTop 2
SYMATTR InstName C4
SYMATTR Value 0.022µ
SYMATTR SpiceLine V=200 Irms=481m Rser=10 Lser=0
SYMBOL cap -832 448 R90
WINDOW 0 0 32 VBottom 2
WINDOW 3 32 32 VTop 2
SYMATTR InstName C5
SYMATTR Value 0.022µ
SYMATTR SpiceLine V=50 Irms=481m Rser=10 Lser=0
SYMBOL res -816 464 R0
WINDOW 3 48 52 VRight 2
SYMATTR Value 1Meg
SYMATTR InstName R5
SYMBOL res -752 464 R0
WINDOW 3 50 52 VRight 2
SYMATTR Value 1Meg
SYMATTR InstName R6
SYMBOL cap -192 512 R90
WINDOW 0 0 32 VBottom 2
WINDOW 3 32 32 VTop 2
SYMATTR InstName C6
SYMATTR Value 20µ
SYMATTR SpiceLine V=25 Irms=0 Rser=10 Lser=0
SYMBOL res -192 528 R0
WINDOW 3 50 52 VRight 2
SYMATTR Value 1Meg
SYMATTR InstName R7
SYMBOL res -16 512 R90
WINDOW 0 0 56 VBottom 2
WINDOW 3 32 56 VTop 2
SYMATTR InstName R8
SYMATTR Value 1K
SYMBOL Opamps\\LTC1053 112 576 M180
SYMATTR InstName U3
SYMBOL res 32 368 R0
SYMATTR InstName R9
SYMATTR Value 1K
SYMBOL res 32 352 R270
WINDOW 0 32 56 VTop 2
WINDOW 3 0 56 VBottom 2
SYMATTR InstName R10
SYMATTR Value 20k
SYMBOL res 480 496 R90
WINDOW 0 0 56 VBottom 2
WINDOW 3 32 56 VTop 2
SYMATTR InstName R11
SYMATTR Value 143K
SYMBOL res 608 496 R90
WINDOW 0 0 56 VBottom 2
WINDOW 3 32 56 VTop 2
SYMATTR InstName R12
SYMATTR Value 1.69K
SYMBOL res 848 496 R90
WINDOW 0 0 56 VBottom 2
WINDOW 3 32 56 VTop 2
SYMATTR InstName R13
SYMATTR Value 143K
SYMBOL res 976 496 R90
WINDOW 0 0 56 VBottom 2
WINDOW 3 32 56 VTop 2
SYMATTR InstName R14
SYMATTR Value 1.69K
SYMBOL res 720 528 R0
WINDOW 0 37 52 Left 2
SYMATTR InstName R15
SYMATTR Value 68K
SYMBOL res 720 640 R0
WINDOW 0 35 52 Left 2
SYMATTR InstName R16
SYMATTR Value 4.3K
SYMBOL Opamps\\LTC1053 1136 592 M180
SYMATTR InstName U4
SYMBOL Opamps\\LTC1053 1136 768 M0
SYMATTR InstName U5
SYMBOL res 1296 736 R0
SYMATTR InstName R17
SYMATTR Value 10K
SYMBOL res 1296 848 R0
SYMATTR InstName R18
SYMATTR Value 90K
SYMBOL res 1488 512 R90
WINDOW 0 0 56 VBottom 2
WINDOW 3 32 56 VTop 2
SYMATTR InstName R19
SYMATTR Value 10K
SYMBOL Opamps\\LTC1053 1696 576 M180
SYMATTR InstName U6
SYMBOL res 1600 368 R0
SYMATTR InstName R20
SYMATTR Value 10K
SYMBOL res 1728 192 R90
WINDOW 0 0 56 VBottom 2
WINDOW 3 32 56 VTop 2
SYMATTR InstName R21
SYMATTR Value 13K
SYMBOL cap 512 384 R90
WINDOW 0 0 32 VBottom 2
WINDOW 3 32 32 VTop 2
SYMATTR InstName C7
SYMATTR Value 0.022µ
SYMATTR SpiceLine V=200 Irms=481m Rser=10 Lser=0
SYMBOL cap 880 384 R90
WINDOW 0 0 32 VBottom 2
WINDOW 3 32 32 VTop 2
SYMATTR InstName C8
SYMATTR Value 0.022µ
SYMATTR SpiceLine V=200 Irms=481m Rser=10 Lser=0
SYMBOL cap 592 704 R180
WINDOW 0 24 56 Left 2
WINDOW 3 24 8 Left 2
SYMATTR InstName C9
SYMATTR Value 0.022µ
SYMATTR SpiceLine V=200 Irms=481m Rser=10 Lser=0
SYMBOL cap 672 704 R180
WINDOW 0 24 56 Left 2
WINDOW 3 24 8 Left 2
SYMATTR InstName C10
SYMATTR Value 0.022µ
SYMATTR SpiceLine V=200 Irms=481m Rser=10 Lser=0
SYMBOL cap 1712 64 R90
WINDOW 0 0 32 VBottom 2
WINDOW 3 32 32 VTop 2
SYMATTR InstName C2
SYMATTR Value 22n
SYMBOL cap 48 256 R270
WINDOW 0 32 32 VTop 2
WINDOW 3 0 32 VBottom 2
SYMATTR InstName C3
SYMATTR Value 22n
SYMBOL voltage -976 352 R0
WINDOW 123 24 124 Left 2
WINDOW 39 0 0 Left 2
SYMATTR Value2 AC 1 1
SYMATTR InstName V2
SYMATTR Value ""
SYMBOL res 2000 496 R90
WINDOW 0 0 56 VBottom 2
WINDOW 3 32 56 VTop 2
SYMATTR InstName R22
SYMATTR Value 1K
TEXT -1064 1000 Left 2 !.ac dec 1000 0.1 10000
